SIM
 OpenBabel12212314003D

 68 70  0  0  1  0  0  0  0  0999 V2000
    0.8917   -0.2683    0.0201 H   0  0  0  0  0  0  0  0  0  0  0  0
    1.9879   -0.0856    0.0473 C   0  0  1  0  0  0  0  0  0  0  0  0
    2.1948    1.4377    0.2933 C   0  0  2  0  0  0  0  0  0  0  0  0
    1.6589    2.2081   -0.9189 C   0  0  0  0  0  0  0  0  0  0  0  0
    2.3919    1.8535   -2.2299 C   0  0  1  0  0  0  0  0  0  0  0  0
    3.6898    2.6457   -2.4164 C   0  0  0  0  0  0  0  0  0  0  0  0
    2.6973    0.3745   -2.3332 C   0  0  0  0  0  0  0  0  0  0  0  0
    2.5308   -0.5052   -1.3192 C   0  0  0  0  0  0  0  0  0  0  0  0
    2.8489   -1.9335   -1.5621 C   0  0  0  0  0  0  0  0  0  0  0  0
    2.7449   -2.8524   -0.5937 C   0  0  0  0  0  0  0  0  0  0  0  0
    2.3408   -2.5120    0.8223 C   0  0  2  0  0  0  0  0  0  0  0  0
    0.8950   -2.9884    1.0399 C   0  0  0  0  0  0  0  0  0  0  0  0
    2.5968   -1.0011    1.1532 C   0  0  2  0  0  0  0  0  0  0  0  0
    2.1335   -0.6062    2.5855 C   0  0  0  0  0  0  0  0  0  0  0  0
    2.8053   -1.4338    3.6994 C   0  0  0  0  0  0  0  0  0  0  0  0
    2.3867   -1.0039    5.1195 C   0  0  2  0  0  0  0  0  0  0  0  0
    2.7908    0.4639    5.4274 C   0  0  0  0  0  0  0  0  0  0  0  0
    2.6183    0.7421    6.9197 C   0  0  1  0  0  0  0  0  0  0  0  0
    1.2744    0.5542    7.3054 O   0  0  0  0  0  0  0  0  0  0  0  0
    3.5888   -0.1542    7.7128 C   0  0  0  0  0  0  0  0  0  0  0  0
    3.5864   -1.5678    7.1860 C   0  0  0  0  0  0  0  0  0  0  0  0
    4.2171   -2.4270    7.7800 O   0  0  0  0  0  0  0  0  0  0  0  0
    2.9405   -1.8962    6.0336 O   0  0  0  0  0  0  0  0  0  0  0  0
    3.5353    1.7264    0.5223 O   0  0  0  0  0  0  0  0  0  0  0  0
    4.0173    2.3767    1.6204 C   0  0  0  0  0  0  0  0  0  0  0  0
    3.2463    2.9285    2.3961 O   0  0  0  0  0  0  0  0  0  0  0  0
    5.5194    2.4068    1.8888 C   0  0  0  0  0  0  0  0  0  0  0  0
    5.8312    3.1586    3.2069 C   0  0  0  0  0  0  0  0  0  0  0  0
    6.0131    0.9549    2.0427 C   0  0  0  0  0  0  0  0  0  0  0  0
    6.2781    3.0633    0.7008 C   0  0  0  0  0  0  0  0  0  0  0  0
    5.8363    4.4938    0.3713 C   0  0  0  0  0  0  0  0  0  0  0  0
    1.5710    1.7387    1.1631 H   0  0  0  0  0  0  0  0  0  0  0  0
    1.6649    3.3072   -0.7516 H   0  0  0  0  0  0  0  0  0  0  0  0
    0.5929    1.9063   -1.0315 H   0  0  0  0  0  0  0  0  0  0  0  0
    1.7167    2.1526   -3.0616 H   0  0  0  0  0  0  0  0  0  0  0  0
    4.4358    2.3840   -1.6487 H   0  0  0  0  0  0  0  0  0  0  0  0
    3.4860    3.7365   -2.3676 H   0  0  0  0  0  0  0  0  0  0  0  0
    4.1317    2.4221   -3.4111 H   0  0  0  0  0  0  0  0  0  0  0  0
    3.0948    0.0222   -3.2822 H   0  0  0  0  0  0  0  0  0  0  0  0
    3.1499   -2.2582   -2.5546 H   0  0  0  0  0  0  0  0  0  0  0  0
    2.9303   -3.8936   -0.8423 H   0  0  0  0  0  0  0  0  0  0  0  0
    3.0020   -3.1025    1.4907 H   0  0  0  0  0  0  0  0  0  0  0  0
    0.1902   -2.4452    0.3768 H   0  0  0  0  0  0  0  0  0  0  0  0
    0.5789   -2.8491    2.0929 H   0  0  0  0  0  0  0  0  0  0  0  0
    0.8168   -4.0741    0.8162 H   0  0  0  0  0  0  0  0  0  0  0  0
    3.6985   -0.8476    1.1143 H   0  0  0  0  0  0  0  0  0  0  0  0
    1.0291   -0.6827    2.6706 H   0  0  0  0  0  0  0  0  0  0  0  0
    2.4124    0.4451    2.7540 H   0  0  0  0  0  0  0  0  0  0  0  0
    3.9106   -1.3586    3.6069 H   0  0  0  0  0  0  0  0  0  0  0  0
    2.5186   -2.4993    3.5849 H   0  0  0  0  0  0  0  0  0  0  0  0
    1.2820   -1.1044    5.1982 H   0  0  0  0  0  0  0  0  0  0  0  0
    2.1730    1.1733    4.8382 H   0  0  0  0  0  0  0  0  0  0  0  0
    3.8609    0.6277    5.1679 H   0  0  0  0  0  0  0  0  0  0  0  0
    2.8766    1.7983    7.1503 H   0  0  0  0  0  0  0  0  0  0  0  0
    1.1218   -0.4073    7.4970 H   0  0  0  0  0  0  0  0  0  0  0  0
    3.3118   -0.1183    8.7886 H   0  0  0  0  0  0  0  0  0  0  0  0
    4.6294    0.2228    7.6069 H   0  0  0  0  0  0  0  0  0  0  0  0
    5.3353    2.6582    4.0673 H   0  0  0  0  0  0  0  0  0  0  0  0
    5.4676    4.2061    3.1766 H   0  0  0  0  0  0  0  0  0  0  0  0
    6.9254    3.1727    3.4010 H   0  0  0  0  0  0  0  0  0  0  0  0
    5.4886    0.4504    2.8826 H   0  0  0  0  0  0  0  0  0  0  0  0
    7.1052    0.9298    2.2484 H   0  0  0  0  0  0  0  0  0  0  0  0
    5.8261    0.3726    1.1148 H   0  0  0  0  0  0  0  0  0  0  0  0
    6.1357    2.4451   -0.2087 H   0  0  0  0  0  0  0  0  0  0  0  0
    7.3693    3.0738    0.9168 H   0  0  0  0  0  0  0  0  0  0  0  0
    4.7581    4.5223    0.1082 H   0  0  0  0  0  0  0  0  0  0  0  0
    6.4158    4.8632   -0.5008 H   0  0  0  0  0  0  0  0  0  0  0  0
    6.0267    5.1806    1.2200 H   0  0  0  0  0  0  0  0  0  0  0  0
  2  1  1  6  0  0  0
  2  3  1  0  0  0  0
  2  8  1  0  0  0  0
  2 13  1  0  0  0  0
  3  4  1  0  0  0  0
  3 24  1  0  0  0  0
  3 32  1  1  0  0  0
  4  5  1  0  0  0  0
  4 33  1  0  0  0  0
  4 34  1  0  0  0  0
  5  6  1  0  0  0  0
  5  7  1  0  0  0  0
  5 35  1  6  0  0  0
  6 36  1  0  0  0  0
  6 37  1  0  0  0  0
  6 38  1  0  0  0  0
  7  8  2  0  0  0  0
  7 39  1  0  0  0  0
  8  9  1  0  0  0  0
  9 10  2  0  0  0  0
  9 40  1  0  0  0  0
 10 11  1  0  0  0  0
 10 41  1  0  0  0  0
 11 12  1  0  0  0  0
 11 13  1  0  0  0  0
 11 42  1  1  0  0  0
 12 43  1  0  0  0  0
 12 44  1  0  0  0  0
 12 45  1  0  0  0  0
 13 14  1  0  0  0  0
 13 46  1  6  0  0  0
 14 15  1  0  0  0  0
 14 47  1  0  0  0  0
 14 48  1  0  0  0  0
 15 16  1  0  0  0  0
 15 49  1  0  0  0  0
 15 50  1  0  0  0  0
 16 17  1  0  0  0  0
 16 23  1  0  0  0  0
 16 51  1  1  0  0  0
 17 18  1  0  0  0  0
 17 52  1  0  0  0  0
 17 53  1  0  0  0  0
 18 19  1  0  0  0  0
 18 20  1  0  0  0  0
 18 54  1  1  0  0  0
 19 55  1  0  0  0  0
 20 21  1  0  0  0  0
 20 56  1  0  0  0  0
 20 57  1  0  0  0  0
 21 22  2  0  0  0  0
 21 23  1  0  0  0  0
 24 25  1  0  0  0  0
 25 26  2  0  0  0  0
 25 27  1  0  0  0  0
 27 28  1  0  0  0  0
 27 29  1  0  0  0  0
 27 30  1  0  0  0  0
 28 58  1  0  0  0  0
 28 59  1  0  0  0  0
 28 60  1  0  0  0  0
 29 61  1  0  0  0  0
 29 62  1  0  0  0  0
 29 63  1  0  0  0  0
 30 31  1  0  0  0  0
 30 64  1  0  0  0  0
 30 65  1  0  0  0  0
 31 66  1  0  0  0  0
 31 67  1  0  0  0  0
 31 68  1  0  0  0  0
M  END
>  <Energy>
353.794

$$$$
