REMARK SMILES CCC(C)(C)C(=O)O[C@H]1C[C@@H](C)C=C2C=C[C@H](C)[C@H](CC[C@@H]3C[C@@H](O)CC(=O)O3)[C@H]21
REMARK SMILES IDX 30 1 9 2 10 3 11 4 12 5 13 6 14 7 15 8 16 9 17 10 18 11
REMARK SMILES IDX 19 12 8 13 6 14 7 15 3 16 4 17 5 18 2 19 1 20 20 21 21 22
REMARK SMILES IDX 22 23 23 24 29 25 24 26 27 27 26 28 28 29 25 30
REMARK H PARENT 25 31
REMARK Flexibility Score: inf
ROOT
ATOM      1  C   UNL A   1       1.988  -0.086   0.047  1.00  0.00     0.063 C 
ATOM      2  C   UNL A   1       2.195   1.438   0.293  1.00  0.00     0.185 C 
ATOM      3  C   UNL A   1       1.659   2.208  -0.919  1.00  0.00     0.053 C 
ATOM      4  C   UNL A   1       2.392   1.853  -2.230  1.00  0.00     0.012 C 
ATOM      5  C   UNL A   1       3.690   2.646  -2.416  1.00  0.00     0.012 C 
ATOM      6  C   UNL A   1       2.697   0.374  -2.333  1.00  0.00    -0.020 C 
ATOM      7  C   UNL A   1       2.531  -0.505  -1.319  1.00  0.00    -0.045 C 
ATOM      8  C   UNL A   1       2.849  -1.933  -1.562  1.00  0.00    -0.000 C 
ATOM      9  C   UNL A   1       2.745  -2.852  -0.594  1.00  0.00    -0.023 C 
ATOM     10  C   UNL A   1       2.341  -2.512   0.822  1.00  0.00     0.012 C 
ATOM     11  C   UNL A   1       0.895  -2.988   1.040  1.00  0.00     0.012 C 
ATOM     12  C   UNL A   1       2.597  -1.001   1.153  1.00  0.00     0.007 C 
ENDROOT
BRANCH   2  13
ATOM     13  O   UNL A   1       3.535   1.726   0.522  1.00  0.00    -0.461 OA
BRANCH  13  14
ATOM     14  C   UNL A   1       4.017   2.377   1.620  1.00  0.00     0.311 C 
ATOM     15  O   UNL A   1       3.246   2.929   2.396  1.00  0.00    -0.252 OA
BRANCH  14  16
ATOM     16  C   UNL A   1       5.519   2.407   1.889  1.00  0.00     0.062 C 
ATOM     17  C   UNL A   1       5.831   3.159   3.207  1.00  0.00     0.023 C 
ATOM     18  C   UNL A   1       6.013   0.955   2.043  1.00  0.00     0.023 C 
BRANCH  16  19
ATOM     19  C   UNL A   1       6.278   3.063   0.701  1.00  0.00     0.015 C 
ATOM     20  C   UNL A   1       5.836   4.494   0.371  1.00  0.00     0.005 C 
ENDBRANCH  16  19
ENDBRANCH  14  16
ENDBRANCH  13  14
ENDBRANCH   2  13
BRANCH  12  21
ATOM     21  C   UNL A   1       2.134  -0.606   2.586  1.00  0.00     0.009 C 
BRANCH  21  22
ATOM     22  C   UNL A   1       2.805  -1.434   3.699  1.00  0.00     0.046 C 
BRANCH  22  23
ATOM     23  C   UNL A   1       2.387  -1.004   5.120  1.00  0.00     0.179 C 
ATOM     24  C   UNL A   1       2.791   0.464   5.427  1.00  0.00     0.077 C 
ATOM     25  O   UNL A   1       2.941  -1.896   6.034  1.00  0.00    -0.462 OA
ATOM     26  C   UNL A   1       2.618   0.742   6.920  1.00  0.00     0.129 C 
ATOM     27  C   UNL A   1       3.586  -1.568   7.186  1.00  0.00     0.308 C 
ATOM     28  C   UNL A   1       3.589  -0.154   7.713  1.00  0.00     0.154 C 
ATOM     29  O   UNL A   1       4.217  -2.427   7.780  1.00  0.00    -0.252 OA
BRANCH  26  30
ATOM     30  O   UNL A   1       1.274   0.554   7.305  1.00  0.00    -0.392 OA
ATOM     31  H   UNL A   1       1.122  -0.407   7.497  1.00  0.00     0.210 HD
ENDBRANCH  26  30
ENDBRANCH  22  23
ENDBRANCH  21  22
ENDBRANCH  12  21
TORSDOF 8
